$DATA1 SOURCE='HSPICE' VERSION='B-2008.09 64-BIT'
.TITLE '*******************************************************'
 index            vin_a            vin_b            vin_c             
                  vsup             ivdd             vis               
                  va               ia               via               
                  vb               ib               vib               
                  vc               ic               vic               
                  leakage          sum              carry             
                  temper           alter#            
    1.000000         0.               0.               0.             
                     1.000000      -7.33318e-07      7.33318e-07      
                     0.             1.99297e-07        0.             
                     0.             2.20767e-07        0.             
                     0.             2.08114e-07        0.             
                   7.33318e-07      7.20046e-05      5.30031e-05      
                    25.000000         1.000000       
    2.000000         0.               0.               1.000000       
                     1.000000      -5.84520e-07      5.84520e-07      
                     0.             2.00213e-07        0.             
                     0.             2.20478e-07        0.             
                     1.000000      -9.62871e-08      9.62871e-08      
                   6.80807e-07        0.999763       5.31830e-05      
                    25.000000         1.000000       
    3.000000         0.               1.000000         0.             
                     1.000000      -4.87409e-07      4.87409e-07      
                     0.             1.99620e-07        0.             
                     1.000000      -8.88131e-08      8.88131e-08      
                     0.             1.03113e-07        0.             
                   5.76223e-07        0.999763       5.31869e-05      
                    25.000000         1.000000       
    4.000000         0.               1.000000         1.000000       
                     1.000000      -4.01111e-07      4.01111e-07      
                     0.             1.98304e-07        0.             
                     1.000000      -1.11978e-07      1.11978e-07      
                     1.000000      -7.41284e-08      7.41284e-08      
                   5.87217e-07      7.17404e-05        0.999669       
                    25.000000         1.000000       
    5.000000         1.000000         0.               0.             
                     1.000000      -4.11247e-07      4.11247e-07      
                     1.000000      -1.82625e-07      1.82625e-07      
                     0.             1.46104e-07        0.             
                     0.             1.02121e-07        0.             
                   5.93872e-07        0.999763       5.33473e-05      
                    25.000000         1.000000       
    6.000000         1.000000         0.               1.000000       
                     1.000000      -2.98457e-07      2.98457e-07      
                     1.000000      -1.85488e-07      1.85488e-07      
                     0.             1.13423e-07        0.             
                     1.000000      -7.51781e-08      7.51781e-08      
                   5.59123e-07      7.17606e-05        0.999670       
                    25.000000         1.000000       
    7.000000         1.000000         1.000000         0.             
                     1.000000      -3.16598e-07      3.16598e-07      
                     1.000000      -1.83902e-07      1.83902e-07      
                     1.000000      -1.79413e-07      1.79413e-07      
                     0.             1.46637e-07        0.             
                   6.79913e-07      7.20372e-05        0.999670       
                    25.000000         1.000000       
    8.000000         1.000000         1.000000         1.000000       
                     1.000000      -1.57711e-07      1.57711e-07      
                     1.000000      -1.82725e-07      1.82725e-07      
                     1.000000      -1.79236e-07      1.79236e-07      
                     1.000000      -1.44558e-07      1.44558e-07      
                   6.64231e-07        0.999763         0.999671       
                    25.000000         1.000000       

